#======================================================================

# CRYSTAL DATA

#----------------------------------------------------------------------

data_VESTA_phase_1


_chemical_name_common                  ''
_cell_length_a                         4.58263(19)
_cell_length_b                         12.3172(6)
_cell_length_c                         12.6907(6)
_cell_angle_alpha                      90
_cell_angle_beta                       93.892(4)
_cell_angle_gamma                      90
_space_group_name_H-M_alt              'P 21/n'
_space_group_IT_number                 14

loop_
_space_group_symop_operation_xyz
   'x, y, z'
   '-x, -y, -z'
   '-x+1/2, y+1/2, -z+1/2'
   'x+1/2, -y+1/2, z+1/2'

loop_
   _atom_site_label
   _atom_site_occupancy
   _atom_site_fract_x
   _atom_site_fract_y
   _atom_site_fract_z
   _atom_site_adp_type
   _atom_site_U_iso_or_equiv
   _atom_site_type_symbol
   K1         1.0     0.23510(13)   0.06298(5)    0.38012(5)   Uiso  0.036353 K
   O1         1.0    -0.2542(4)    -0.05594(14)   0.39519(18)  Uiso  0.037230 O
   O3         1.0     0.4265(4)    -0.25408(16)   0.54887(16)  Uiso  0.035498 O
   N1         1.0    -0.2957(5)    -0.14543(17)   0.34012(18)  Uiso  0.028297 N
   N2         1.0    -0.5065(5)    -0.1547(2)     0.2623(2)    Uiso  0.037324 N
   N3         1.0    -0.4912(5)    -0.2546(2)     0.2267(2)    Uiso  0.040498 N
   N4         1.0    -0.2758(5)    -0.30966(18)   0.2796(2)    Uiso  0.034854 N
   N5         1.0     0.2079(5)    -0.19725(18)   0.49282(18)  Uiso  0.031681 N
   N6         1.0     0.4320(5)    -0.36255(18)   0.5150(2)    Uiso  0.036310 N
   N7         1.0     0.1620(8)    -0.4599(2)     0.3817(4)    Uiso  0.047942 N
   H7A        1.0    -0.003(8)     -0.460(3)      0.349(3)     Uiso  0.043000 H
   H7B        1.0     0.244(10)    -0.515(4)      0.402(4)     Uiso  0.082000 H
   C          1.0     0.0833(5)    -0.2659(2)     0.4264(2)    Uiso  0.025055 C
   C0AA       1.0    -0.1546(7)    -0.2406(2)     0.3508(2)    Uiso  0.027375 C
   C3         1.0     0.2236(7)    -0.3705(2)     0.4403(2)    Uiso  0.029695 C

loop_
   _atom_site_aniso_label
   _atom_site_aniso_U_11
   _atom_site_aniso_U_22
   _atom_site_aniso_U_33
   _atom_site_aniso_U_12
   _atom_site_aniso_U_13
   _atom_site_aniso_U_23
   K1	 0.03730  0.02990  0.04110  0.00330 -0.00290 -0.00160
   O1	 0.04110  0.01980  0.05030  0.00250 -0.00050 -0.00560
   O3	 0.03540  0.03240  0.03720  0.00350 -0.00850 -0.00630
   N1	 0.03150  0.02330  0.02970 -0.00010 -0.00080  0.00070
   N2	 0.03810  0.04060  0.03240  0.00020 -0.00400  0.00620
   N3	 0.04210  0.04710  0.03130 -0.00280 -0.00480 -0.00060
   N4	 0.04250  0.03180  0.02960 -0.00570 -0.00240 -0.00410
   N5	 0.03360  0.02730  0.03330  0.00100 -0.00390 -0.00470
   N6	 0.03980  0.02720  0.04120  0.00510 -0.00260 -0.00110
   N7	 0.05650  0.02170  0.06300  0.00600 -0.01520 -0.00750
   H7A	 0.00000  0.00000  0.00000  0.00000  0.00000  0.00000
   H7B	 0.00000  0.00000  0.00000  0.00000  0.00000  0.00000
   C	 0.03040  0.02060  0.02420 -0.00050  0.00210 -0.00150
   C0AA	 0.03350  0.02270  0.02580 -0.00210  0.00110 -0.00070
   C3	 0.03360  0.02240  0.03290 -0.00040  0.00090  0.00000
