#======================================================================

# CRYSTAL DATA

#----------------------------------------------------------------------

data_VESTA_phase_1


_chemical_name_common                  ''
_cell_length_a                         9.1786(3)
_cell_length_b                         13.0982(5)
_cell_length_c                         6.8512(3)
_cell_angle_alpha                      90
_cell_angle_beta                       107.535(4)
_cell_angle_gamma                      90
_space_group_name_H-M_alt              'P 21/c'
_space_group_IT_number                 14

loop_
_space_group_symop_operation_xyz
   'x, y, z'
   '-x, -y, -z'
   '-x, y+1/2, -z+1/2'
   'x, -y+1/2, z+1/2'

loop_
   _atom_site_label
   _atom_site_occupancy
   _atom_site_fract_x
   _atom_site_fract_y
   _atom_site_fract_z
   _atom_site_adp_type
   _atom_site_U_iso_or_equiv
   _atom_site_type_symbol
   K1         1.0     0.86428(6)    0.45661(4)    1.23579(8)   Uiso  0.031000 K
   H1WA       1.0     0.859(4)      0.3965(18)    1.671(6)     Uiso  0.073000 H
   H1WB       1.0     0.813(4)      0.492(3)      1.711(5)     Uiso  0.069000 H
   H7A        1.0     0.621(3)      0.969(2)      0.871(4)     Uiso  0.043000 H
   O1         1.0     0.74871(18)   0.57616(12)   0.8902(4)    Uiso  0.028656 O
   O1W        1.0     0.8403(2)     0.45656(14)   1.6237(4)    Uiso  0.036147 O
   O2         1.0     0.34683(18)   0.74295(13)   0.5534(4)    Uiso  0.029453 O
   N1         1.0     0.8049(2)     0.66915(14)   0.9168(4)    Uiso  0.019798 N
   N2         1.0     0.9519(2)     0.68837(16)   1.0190(4)    Uiso  0.027332 N
   N3         1.0     0.9667(2)     0.78837(16)   1.0232(4)    Uiso  0.029492 N
   N4         1.0     0.8336(2)     0.83401(16)   0.9250(4)    Uiso  0.025809 N
   N5         1.0     0.4844(2)     0.69840(16)   0.6541(4)    Uiso  0.024833 N
   N6         1.0     0.3530(2)     0.84888(16)   0.5829(4)    Uiso  0.026631 N
   N7         1.0     0.5467(2)     0.96283(16)   0.7596(4)    Uiso  0.026470 N
   H7B        1.0     0.482(3)      1.013(2)      0.740(4)     Uiso  0.034000 H
   C1         1.0     0.7333(2)     0.75868(17)   0.8593(4)    Uiso  0.018604 C
   C2         1.0     0.5744(2)     0.77280(17)   0.7431(4)    Uiso  0.018608 C
   C3         1.0     0.4922(2)     0.86822(18)   0.6987(4)    Uiso  0.020671 C

loop_
   _atom_site_aniso_label
   _atom_site_aniso_U_11
   _atom_site_aniso_U_22
   _atom_site_aniso_U_33
   _atom_site_aniso_U_12
   _atom_site_aniso_U_13
   _atom_site_aniso_U_23
   K1	 0.03000  0.02550  0.02890  0.00420 -0.00410 -0.00210
   H1WA	 0.00000  0.00000  0.00000  0.00000  0.00000  0.00000
   H1WB	 0.00000  0.00000  0.00000  0.00000  0.00000  0.00000
   H7A	 0.00000  0.00000  0.00000  0.00000  0.00000  0.00000
   O1	 0.02790  0.01340  0.04260 -0.00100  0.00750  0.00270
   O1W	 0.04870  0.02060  0.04340  0.00210  0.02030  0.00330
   O2	 0.02160  0.01970  0.03920 -0.00070 -0.00270 -0.00230
   N1	 0.01860  0.01440  0.02460  0.00060  0.00380 -0.00010
   N2	 0.01940  0.02470  0.03390  0.00100  0.00200  0.00550
   N3	 0.02210  0.02490  0.03450 -0.00180 -0.00200  0.00120
   N4	 0.02420  0.01830  0.02980 -0.00150  0.00040 -0.00120
   N5	 0.02110  0.01940  0.02990  0.00100  0.00150  0.00010
   N6	 0.02330  0.01710  0.03530  0.00290  0.00250  0.00180
   N7	 0.02350  0.01380  0.03730  0.00390  0.00190 -0.00090
   H7B	 0.00000  0.00000  0.00000  0.00000  0.00000  0.00000
   C1	 0.01920  0.01570  0.01950  0.00180  0.00370  0.00220
   C2	 0.01970  0.01600  0.01880  0.00100  0.00380  0.00060
   C3	 0.01930  0.01900  0.02240  0.00280  0.00430  0.00330
